ANIMSTEPS    6
CRYSTAL
PRIMVEC
   -2.778180357    0.000000000    2.778180357
    0.000000000    2.778180357    2.778180357
   -2.778180357    2.778180357    0.000000000
PRIMCOORD    1
      2   1
   Al     0.00000   0.00000   0.00000   0.04130   0.05739   0.00000
   As     1.38909   1.38909   1.38909   0.04130   0.05739   0.00000
PRIMCOORD    2
      2   1
   Al     0.00000   0.00000   0.00000   0.00000   0.00000  -0.07071
   As     1.38909   1.38909   1.38909   0.00000   0.00000  -0.07071
PRIMCOORD    3
      2   1
   Al     0.00000   0.00000   0.00000   0.05739  -0.04130   0.00000
   As     1.38909   1.38909   1.38909   0.05739  -0.04130   0.00000
PRIMCOORD    4
      2   1
   Al     0.00000   0.00000   0.00000   0.00000   0.00000   0.09409
   As     1.38909   1.38909   1.38909   0.00000   0.00000  -0.03388
PRIMCOORD    5
      2   1
   Al     0.00000   0.00000   0.00000  -0.00000   0.09409   0.00000
   As     1.38909   1.38909   1.38909   0.00000  -0.03388   0.00000
PRIMCOORD    6
      2   1
   Al     0.00000   0.00000   0.00000  -0.09409  -0.00000   0.00000
   As     1.38909   1.38909   1.38909   0.03388   0.00000   0.00000
